LAMMPS (15 Sep 2022)
# Initialize simulation

variable nsteps index 1000 #10000

variable nrep equal 3
variable a equal 3.316
units           metal

# generate the box and atom positions using a BCC lattice

variable nx equal 3
variable ny equal 3
variable nz equal 3

boundary        p p p

lattice         bcc $a
lattice         bcc 3.316
Lattice spacing in x,y,z = 3.316 3.316 3.316
region          box block 0 3 0 3 0 3
create_box      1 box
Created orthogonal box = (0 0 0) to (9.948 9.948 9.948)
create_atoms    1 box
Created 54 atoms

mass 1 180.88

# choose potential

# include Ta.pytorch.mliap

# DATE: 2014-09-05 UNITS: metal CONTRIBUTOR: Aidan Thompson athomps@sandia.gov CITATION: Thompson, Swiler, Trott, Foiles and Tucker, arxiv.org, 1409.3880 (2014)

# Definition of SNAP potential Ta
# Assumes 1 LAMMPS atom type

variable zblcutinner equal 4
variable zblcutouter equal 4.8
variable zblz equal 73

# Specify hybrid with SNAP, ZBL

pair_style hybrid/overlay zbl 4 4.8 mliap model mliappy ../FitTorch_Pytorch.pt descriptor sna Ta.mliap.descriptor
Loading python model complete.
SNAP keyword rcutfac 4.67637
SNAP keyword twojmax 6
SNAP keyword nelems 1
SNAP keyword elems Ta
SNAP keyword radelems 0.5
SNAP keyword welems 1
SNAP keyword rfac0 0.99363
SNAP keyword rmin0 0
SNAP keyword bzeroflag 1
pair_coeff 1 1 zbl 73 73
pair_coeff * * mliap Ta

compute  eatom all pe/atom
compute  energy all reduce sum c_eatom

compute  satom all stress/atom NULL
compute  str all reduce sum c_satom[1] c_satom[2] c_satom[3]
variable press equal (c_str[1]+c_str[2]+c_str[3])/(3*vol)

thermo_style    custom step temp pe epair c_energy etotal press v_press
thermo          10
thermo_modify norm yes

# Set up NVE run

timestep 0.5e-3
neighbor 1.0 bin
neigh_modify once no every 1 delay 0 check yes

# Run MD

velocity all create 1200.0 4928459 loop geom
dump 1 all xyz 10 dump.xyz
fix 1 all nve
run             1000
Step          Temp          PotEng         E_pair        c_energy        TotEng         Press         v_press
0   1200          -11.84461      -11.84461      -11.84461      -11.69237      -732212.15      732212.15
Averages over the last 51 of 101 rows, steps 500 to 1000:
Temp PotEng E_pair c_energy TotEng Press v_press
634.479 -11.7729 -11.7729 -11.7729 -11.6924 -730655 730655
Loop time of 5.50721 on 2 procs for 1000 steps with 54 atoms
